24
4e/12o CASSCF,  J. AM. CHEM. SOC. 9 VOL. 126, NO. 10, 2004
 N -0.005261 0.000000 0.621459
 C 1.278202 0.000000 1.234646
 C 1.277845 0.000000 2.626235
 C 2.481644 0.000000 3.325516
 C 3.677655 0.000000 2.641709
 C 3.685193 0.000000 1.244679
 C 2.491800 0.000000 0.535357
 H 0.336614 0.000000 3.143759
 H 2.473289 0.000000 4.400614
 H 4.607709 0.000000 3.181349
 H 4.620084 0.000000 0.713924
 H 2.488894 0.000000 -0.536430
 N 0.005261 0.000000 -0.621459
 C -1.278202 0.000000 -1.234646
 C -1.277845 0.000000 -2.626235
 C -2.481644 0.000000 -3.325516
 C -3.677655 0.000000 -2.641709
 C -3.685193 0.000000 -1.244679
 C -2.491800 0.000000 -0.535357
 H -0.336614 0.000000 -3.143759
 H -2.473289 0.000000 -4.400614
 H -4.607709 0.000000 -3.181349
 H -4.620084 0.000000 -0.713924
 H -2.488894 0.000000 0.536430
